/*--------------------------------*- C++ -*----------------------------------*\
| =========                 |                                                 |
| \\      /  F ield         | OpenFOAM: The Open Source CFD Toolbox           |
|  \\    /   O peration     | Version:  2406                                  |
|   \\  /    A nd           | Website:  www.openfoam.com                      |
|    \\/     M anipulation  |                                                 |
\*---------------------------------------------------------------------------*/
FoamFile
{
    version     2.0;
    format      ascii;
    arch        "LSB;label=32;scalar=64";
    class       volScalarField;
    location    "0/outerWall";
    object      cellToRegion;
}
// * * * * * * * * * * * * * * * * * * * * * * * * * * * * * * * * * * * * * //

dimensions      [0 0 0 0 0 0 0];

internalField   uniform 0;

boundaryField
{
    outerBoundary
    {
        type            zeroGradient;
    }
    solidInlet
    {
        type            zeroGradient;
    }
    solidOutlet
    {
        type            zeroGradient;
    }
    frontAndBack
    {
        type            empty;
    }
    outerWall_to_fluid
    {
        type            calculated;
        value           uniform 0;
    }
}


// ************************************************************************* //
