/*--------------------------------*- C++ -*-----------------------------------*/
/*--------------------------------*- C++ -*-----------------------------------*/
FoamFile
{
    version     2.0;
    format      ascii;
    class       dictionary;
    object      fvSolution;
}

solvers {}

PIMPLE
{
    nOuterCorrectors    1;
    nCorrectors         2;
    nNonOrthogonalCorrectors 0;
}
